Version 4
SHEET 1 1364 804
WIRE 272 -96 -16 -96
WIRE 672 -96 272 -96
WIRE 272 -48 272 -96
WIRE -16 64 -16 -96
WIRE 272 64 272 16
WIRE 416 80 320 80
WIRE 672 80 672 -96
WIRE 352 128 320 128
WIRE 352 160 352 128
WIRE 416 160 352 160
WIRE -16 208 -16 144
WIRE 272 224 272 144
WIRE 672 224 672 160
WIRE 176 288 64 288
WIRE 272 288 176 288
WIRE 432 288 272 288
WIRE 560 288 432 288
WIRE 640 288 560 288
WIRE 176 336 176 288
WIRE 560 336 560 288
WIRE 432 384 432 288
WIRE 432 384 304 384
WIRE 496 384 432 384
WIRE 64 432 64 288
WIRE 640 432 640 288
WIRE 304 448 304 384
WIRE 496 448 496 384
WIRE -16 496 -16 288
WIRE 64 496 -16 496
WIRE 176 496 176 416
WIRE 176 496 64 496
WIRE 288 496 176 496
WIRE 416 496 384 496
WIRE 560 496 560 416
WIRE 560 496 512 496
WIRE 640 496 560 496
WIRE 672 496 672 304
WIRE 672 496 640 496
WIRE -16 736 -16 496
WIRE 272 736 -16 736
WIRE 400 736 352 736
WIRE 672 736 672 496
WIRE 672 736 464 736
FLAG -16 736 0
SYMBOL voltage -16 192 R0
WINDOW 123 0 0 Left 0
WINDOW 39 0 0 Left 0
SYMATTR InstName V1
SYMATTR Value 10
SYMBOL voltage 672 208 R0
WINDOW 123 0 0 Left 0
WINDOW 39 0 0 Left 0
SYMATTR InstName V2
SYMATTR Value 14
SYMBOL res -32 48 R0
SYMATTR InstName R1
SYMATTR Value 1
SYMBOL res 656 64 R0
SYMATTR InstName R2
SYMATTR Value 1
SYMBOL nmos 384 448 R90
SYMATTR InstName M1
SYMATTR Value IPB016N06L3
SYMBOL diode 464 720 R90
WINDOW 0 0 32 VBottom 2
WINDOW 3 32 32 VTop 2
SYMATTR InstName D1
SYMATTR Value 1N4148
SYMBOL res 368 720 R90
WINDOW 0 0 56 VBottom 2
WINDOW 3 32 56 VTop 2
SYMATTR InstName R3
SYMATTR Value 20
SYMBOL nmos 416 448 M90
SYMATTR InstName M2
SYMATTR Value IPB016N06L3
SYMBOL diode 256 -48 R0
SYMATTR InstName D2
SYMATTR Value 1N4148
SYMBOL Misc\\signal 416 64 R0
WINDOW 123 0 0 Left 0
WINDOW 39 0 0 Left 0
SYMATTR InstName V3
SYMATTR Value PULSE(0 1 .5 .01 .01 .5)
SYMBOL sw 272 160 R180
SYMATTR InstName S1
SYMATTR Value MYSW
SYMBOL res 960 256 R0
SYMATTR InstName R6
SYMATTR Value 1000e3
SYMBOL res 160 320 R0
SYMATTR InstName R5
SYMATTR Value 470e3
SYMBOL res 544 320 R0
SYMATTR InstName R7
SYMATTR Value 470e3
SYMBOL cap 48 432 R0
SYMATTR InstName C1
SYMATTR Value 100µF
SYMBOL cap 624 432 R0
SYMATTR InstName C2
SYMATTR Value 100µF
SYMBOL diode 256 224 R0
SYMATTR InstName D5
SYMATTR Value 1N4148
TEXT 760 -48 Left 2 !.model MYSW SW(Ron=1 Roff=1Meg Vt=.5 Vh=-.4)
TEXT -50 786 Left 2 !.tran 600 startup
